<?xml version="1.0" encoding="UTF-8"?>

<configuration xmlns:xsi="http://www.w3.org/2001/XMLSchema-instance" xsi:noNamespaceSchemaLocation="http://sumo.dlr.de/xsd/sumoConfiguration.xsd">

    <input>
        <net-file value="M50network.net.xml"/>
		<additional-files value="vtypes.add.xml,M50_routes.rou.xml,M50_emitters.emi.xml,M50_detectors.poi.xml"/>
    </input>

    <output>
        <full-output value="fulloutput.xml"/>
        <tripinfo-output value="tripinfo.xml"/>
        <tripinfo-output.write-unfinished value="true"/>
        <statistic-output value="statistic.xml"/>
    </output>

	
    <time>
        <begin value="32400"/>
        <end value="33300"/>
        <step-length value="1"/>
    </time>

	<processing>
		<emergencydecel.warning-threshold value="5"/>
		<collision.mingap-factor value="0"/>
	</processing>

     <ssm_device>
        <device.ssm.probability value="1"/>
        <device.ssm.deterministic value="true"/>
        <device.ssm.measures value="TTC PET"/>
        <device.ssm.thresholds value="1.5 2"/>
        <device.ssm.trajectories value="false"/>
        <device.ssm.range value="50"/>
        <device.ssm.extratime value="5"/>
        <device.ssm.file value="ssm.out.xml"/>
        <device.ssm.geo value="true"/>
    </ssm_device>

    <traci_server>
        <remote-port value="51709"/>
    </traci_server>

    <gui_only>
        <delay value="1000"/>
    </gui_only>

</configuration>